12

C 3.1150000000 3.2192000000 -0.0447000000 
C 4.1307000000 3.6284000000 -0.9079000000 
C 2.5660000000 4.1220000000 0.8672000000 
H 2.7443000000 2.1940000000 -0.0853000000 
H 4.5517000000 2.9245000000 -1.6239000000 
C 4.6014000000 4.9411000000 -0.8672000000 
H 1.7592000000 3.8168000000 1.5359000000 
C 3.0367000000 5.4347000000 0.9079000000 
C 4.0524000000 5.8439000000 0.0447000000 
H 5.4082000000 5.2463000000 -1.5359000000 
H 2.6157000000 6.1386000000 1.6239000000 
H 4.4231000000 6.8691000000 0.0853000000 
